ProjectFiles/HECOHI/DSSfiles/LinesMikilua_keep.dss
! Script for LinesMikilua.dss

! LINE DEFINITIONS
New Line.BB_258064 Bus1=DEV_258083.1 Bus2=DEV_258183.1 phases=1 Linecode=lc1 Length=2.000000 units=ft !overhead line
New Line.BB_258067 Bus1=DEV_258175.1 Bus2=DEV_258084.1 phases=1 Linecode=lc1 Length=2.000000 units=ft !overhead line
New Line.BB_258070 Bus1=DEV_258082.1 Bus2=DEV_258185.1 phases=1 Linecode=lc1 Length=2.000000 units=ft !overhead line
New Line.BB_258073 Bus1=DEV_258074.1 Bus2=DEV_258195.1 phases=1 Linecode=lc1 Length=2.000000 units=ft !overhead line
New Line.BB_258077 Bus1=DEV_258078.1 Bus2=DEV_258191.1 phases=1 Linecode=lc1 Length=2.000000 units=ft !overhead line
New Line.BB_258080 Bus1=DEV_258081.1 Bus2=DEV_258181.1 phases=1 Linecode=lc1 Length=2.000000 units=ft !overhead line
New Line.BB_258153 Bus1=DEV_258173.1 Bus2=DEV_258152.1 phases=1 Linecode=lc1 Length=2.000000 units=ft !overhead line
New Line.BB_258202 Bus1=DEV_258210.1 Bus2=DEV_258211.1 phases=1 Linecode=lc1 Length=2.000000 units=ft !overhead line
New Line.BB_258797 Bus1=DEV_258793.1 Bus2=DEV_258894.1 phases=1 Linecode=lc1 Length=2.000000 units=ft !overhead line
New Line.BB_258803 Bus1=DEV_258813.1 Bus2=DEV_258887.1 phases=1 Linecode=lc1 Length=2.000000 units=ft !overhead line
New Line.BB_258805 Bus1=DEV_258881.1 Bus2=DEV_258818.1 phases=1 Linecode=lc1 Length=2.000000 units=ft !overhead line
New Line.BB_258824 Bus1=DEV_258825.1 Bus2=DEV_258823.1 phases=1 Linecode=lc1 Length=2.000000 units=ft !overhead line
New Line.BB_258838 Bus1=DEV_258839.1 Bus2=DEV_258897.1 phases=1 Linecode=lc1 Length=2.000000 units=ft !overhead line
New Line.BB_258899 Bus1=DEV_258807.1 Bus2=DEV_258885.1 phases=1 Linecode=lc1 Length=2.000000 units=ft !overhead line
New Line.BB_259014 Bus1=DEV_259020.1.2.3 Bus2=DEV_259186.1.2.3 phases=3 Linecode=lc2 Length=2.000000 units=ft !overhead line
New Line.BB_259030 Bus1=NODE_613672.1.2.3 Bus2=DEV_258057.1.2.3 phases=3 Linecode=lc2 Length=2.000000 units=ft !overhead line
New Line.BB_259031 Bus1=DEV_259046.1 Bus2=DEV_259145.1 phases=1 Linecode=lc1 Length=2.000000 units=ft !overhead line
New Line.BB_259033 Bus1=DEV_259149.1 Bus2=DEV_259034.1 phases=1 Linecode=lc1 Length=2.000000 units=ft !overhead line
New Line.BB_259037 Bus1=DEV_259151.1 Bus2=DEV_259038.1 phases=1 Linecode=lc1 Length=2.000000 units=ft !overhead line
New Line.BB_259041 Bus1=DEV_259042.1 Bus2=DEV_259153.1 phases=1 Linecode=lc1 Length=2.000000 units=ft !overhead line
New Line.BB_259044 Bus1=DEV_259143.1 Bus2=DEV_259045.1 phases=1 Linecode=lc1 Length=2.000000 units=ft !overhead line
New Line.BB_259160 Bus1=DEV_259162.1 Bus2=DEV_259161.1 phases=1 Linecode=lc1 Length=2.000000 units=ft !overhead line
New Line.BB_259166 Bus1=DEV_259167.1 Bus2=DEV_259168.1 phases=1 Linecode=lc1 Length=2.000000 units=ft !overhead line
New Line.BB_259171 Bus1=DEV_259173.1 Bus2=DEV_259172.1 phases=1 Linecode=lc1 Length=2.000000 units=ft !overhead line
New Line.BB_259176 Bus1=DEV_259177.1 Bus2=DEV_259178.1 phases=1 Linecode=lc1 Length=2.000000 units=ft !overhead line
New Line.BB_259185 Bus1=DEV_259050.1.2.3 Bus2=NODE_30049816.1.2.3 phases=3 Linecode=lc2 Length=2.000000 units=ft !overhead line
New Line.BB_262469 Bus1=DEV_262522.3 Bus2=DEV_262470.3 phases=1 Linecode=lc1 Length=2.000000 units=ft !overhead line
New Line.BB_263527 Bus1=DEV_263529.1.2.3 Bus2=DEV_263528.1.2.3 phases=3 Linecode=lc2 Length=2.000000 units=ft !overhead line
New Line.BB_263551 Bus1=DEV_263917.3 Bus2=DEV_263554.3 phases=1 Linecode=lc1 Length=2.000000 units=ft !overhead line
New Line.BB_263552 Bus1=DEV_263909.3 Bus2=DEV_263557.3 phases=1 Linecode=lc1 Length=2.000000 units=ft !overhead line
New Line.BB_263625 Bus1=DEV_263626.1 Bus2=DEV_263913.1 phases=1 Linecode=lc1 Length=2.000000 units=ft !overhead line
New Line.BB_263629 Bus1=DEV_263630.1 Bus2=DEV_263905.1 phases=1 Linecode=lc1 Length=2.000000 units=ft !overhead line
New Line.BB_263786 Bus1=DEV_263668.3 Bus2=DEV_263881.3 phases=1 Linecode=lc1 Length=2.000000 units=ft !overhead line
New Line.BB_263787 Bus1=DEV_263672.3 Bus2=DEV_263883.3 phases=1 Linecode=lc1 Length=2.000000 units=ft !overhead line
New Line.BB_263788 Bus1=DEV_263678.3 Bus2=DEV_263885.3 phases=1 Linecode=lc1 Length=2.000000 units=ft !overhead line
New Line.BB_263789 Bus1=DEV_263685.3 Bus2=DEV_263879.3 phases=1 Linecode=lc1 Length=2.000000 units=ft !overhead line
New Line.BB_263790 Bus1=DEV_263553.3 Bus2=DEV_263915.3 phases=1 Linecode=lc1 Length=2.000000 units=ft !overhead line
New Line.BB_263791 Bus1=DEV_263555.3 Bus2=DEV_263919.3 phases=1 Linecode=lc1 Length=2.000000 units=ft !overhead line
New Line.BB_263792 Bus1=DEV_263920.3 Bus2=DEV_263556.3 phases=1 Linecode=lc1 Length=2.000000 units=ft !overhead line
New Line.BB_263793 Bus1=DEV_263634.1 Bus2=DEV_263717.1 phases=1 Linecode=lc1 Length=2.000000 units=ft !overhead line
New Line.BB_263794 Bus1=DEV_263638.1 Bus2=DEV_263903.1 phases=1 Linecode=lc1 Length=2.000000 units=ft !overhead line
New Line.BB_263795 Bus1=DEV_263640.1 Bus2=DEV_263907.1 phases=1 Linecode=lc1 Length=2.000000 units=ft !overhead line
New Line.BB_263796 Bus1=DEV_263655.2 Bus2=DEV_263720.2 phases=1 Linecode=lc1 Length=2.000000 units=ft !overhead line
New Line.BB_263797 Bus1=DEV_263892.2 Bus2=DEV_263652.2 phases=1 Linecode=lc1 Length=2.000000 units=ft !overhead line
New Line.BB_263798 Bus1=DEV_263657.2 Bus2=DEV_263901.2 phases=1 Linecode=lc1 Length=2.000000 units=ft !overhead line
New Line.BB_263799 Bus1=DEV_263897.1 Bus2=DEV_263644.1 phases=1 Linecode=lc1 Length=2.000000 units=ft !overhead line
New Line.BB_263800 Bus1=DEV_263663.2 Bus2=DEV_263899.2 phases=1 Linecode=lc1 Length=2.000000 units=ft !overhead line
New Line.BB_263801 Bus1=DEV_263689.3 Bus2=DEV_263690.3 phases=1 Linecode=lc1 Length=2.000000 units=ft !overhead line
New Line.BB_263802 Bus1=DEV_263694.3 Bus2=DEV_263871.3 phases=1 Linecode=lc1 Length=2.000000 units=ft !overhead line
New Line.BB_263803 Bus1=DEV_263877.3 Bus2=DEV_263680.3 phases=1 Linecode=lc1 Length=2.000000 units=ft !overhead line
New Line.BB_263804 Bus1=DEV_263696.3 Bus2=DEV_263873.3 phases=1 Linecode=lc1 Length=2.000000 units=ft !overhead line
New Line.BB_263805 Bus1=DEV_263698.3 Bus2=DEV_263875.3 phases=1 Linecode=lc1 Length=2.000000 units=ft !overhead line
New Line.BB_263806 Bus1=DEV_263701.3 Bus2=DEV_263865.3 phases=1 Linecode=lc1 Length=2.000000 units=ft !overhead line
New Line.BB_263807 Bus1=DEV_263707.3 Bus2=DEV_263867.3 phases=1 Linecode=lc1 Length=2.000000 units=ft !overhead line
New Line.BB_263808 Bus1=DEV_263716.3 Bus2=DEV_263863.3 phases=1 Linecode=lc1 Length=2.000000 units=ft !overhead line
New Line.BB_263809 Bus1=DEV_263710.3 Bus2=DEV_263869.3 phases=1 Linecode=lc1 Length=2.000000 units=ft !overhead line
New Line.BB_263817 Bus1=DEV_263911.1 Bus2=DEV_263621.1 phases=1 Linecode=lc1 Length=2.000000 units=ft !overhead line
New Line.BB_263823 Bus1=DEV_263895.2 Bus2=DEV_263622.2 phases=1 Linecode=lc1 Length=2.000000 units=ft !overhead line
New Line.BB_263824 Bus1=NODE_5011599.1.2.3 Bus2=DEV_263842.1.2.3 phases=3 Linecode=lc2 Length=2.000000 units=ft !overhead line
New Line.BB_263829 Bus1=NODE_5011570.1.2.3 Bus2=DEV_263840.1.2.3 phases=3 Linecode=lc2 Length=2.000000 units=ft !overhead line
New Line.BB_263833 Bus1=DEV_263922.1.2.3 Bus2=DEV_263923.1.2.3 phases=3 Linecode=lc2 Length=2.000000 units=ft !overhead line
New Line.BB_263888 Bus1=DEV_263889.2 Bus2=DEV_263887.2 phases=1 Linecode=lc1 Length=2.000000 units=ft !overhead line
New Line.BB_264037 Bus1=DEV_264039.2 Bus2=DEV_264038.2 phases=1 Linecode=lc1 Length=2.000000 units=ft !overhead line
New Line.BB_264116 Bus1=DEV_264112.3 Bus2=DEV_264113.3 phases=1 Linecode=lc1 Length=2.000000 units=ft !overhead line
New Line.BB_264119 Bus1=DEV_264110.1 Bus2=DEV_264111.1 phases=1 Linecode=lc1 Length=2.000000 units=ft !overhead line
New Line.BB_264132 Bus1=DEV_264133.1 Bus2=DEV_264131.1 phases=1 Linecode=lc1 Length=2.000000 units=ft !overhead line
New Line.BB_264986 Bus1=DEV_264985.1 Bus2=DEV_264984.1 phases=1 Linecode=lc1 Length=2.000000 units=ft !overhead line
New Line.BB_264987 Bus1=DEV_264981.1 Bus2=DEV_264980.1 phases=1 Linecode=lc1 Length=2.000000 units=ft !overhead line
New Line.BB_265164 Bus1=DEV_265173.1.2.3 Bus2=DEV_265174.1.2.3 phases=3 Linecode=lc2 Length=2.000000 units=ft !overhead line
New Line.BB_51045896 Bus1=DEV_51045897.1 Bus2=DEV_51045898.1 phases=1 Linecode=lc1 Length=2.000000 units=ft !overhead line
New Line.BB_51045964 Bus1=DEV_51045965.3 Bus2=DEV_51045966.3 phases=1 Linecode=lc1 Length=2.000000 units=ft !overhead line
New Line.BB_51045975 Bus1=DEV_51045976.3 Bus2=DEV_51045977.3 phases=1 Linecode=lc1 Length=2.000000 units=ft !overhead line
New Line.BB_51045982 Bus1=DEV_51045983.3 Bus2=DEV_51045984.3 phases=1 Linecode=lc1 Length=2.000000 units=ft !overhead line
New Line.BB_51045990 Bus1=DEV_51045991.2 Bus2=DEV_51045992.2 phases=1 Linecode=lc1 Length=2.000000 units=ft !overhead line
New Line.BB_51045998 Bus1=DEV_51045999.2 Bus2=DEV_51046000.2 phases=1 Linecode=lc1 Length=2.000000 units=ft !overhead line
New Line.BB_51046005 Bus1=DEV_51046006.2 Bus2=DEV_51046007.2 phases=1 Linecode=lc1 Length=2.000000 units=ft !overhead line
New Line.BB_51046012 Bus1=DEV_51046013.2 Bus2=DEV_51046014.2 phases=1 Linecode=lc1 Length=2.000000 units=ft !overhead line
New Line.BB_51046018 Bus1=DEV_51046019.2 Bus2=DEV_51046020.2 phases=1 Linecode=lc1 Length=2.000000 units=ft !overhead line
New Line.BB_51046030 Bus1=DEV_51046031.2 Bus2=DEV_51046032.2 phases=1 Linecode=lc1 Length=2.000000 units=ft !overhead line
New Line.BB_51046037 Bus1=DEV_51046038.2 Bus2=DEV_51046039.2 phases=1 Linecode=lc1 Length=2.000000 units=ft !overhead line
New Line.BB_51046044 Bus1=DEV_51046045.3 Bus2=DEV_51046046.3 phases=1 Linecode=lc1 Length=2.000000 units=ft !overhead line
New Line.BB_51054581 Bus1=DEV_51054582.1 Bus2=DEV_51054583.1 phases=1 Linecode=lc1 Length=2.000000 units=ft !overhead line
New Line.BB_51067432 Bus1=DEV_51067433.1 Bus2=DEV_51067434.1 phases=1 Linecode=lc1 Length=2.000000 units=ft !overhead line
New Line.BB_51118371 Bus1=DEV_51118372.1.2.3 Bus2=DEV_51118373.1.2.3 phases=3 Linecode=lc2 Length=2.000000 units=ft !overhead line
New Line.BB_51118539 Bus1=DEV_51118540.1.2.3 Bus2=DEV_51118541.1.2.3 phases=3 Linecode=lc2 Length=2.000000 units=ft !overhead line
New Line.BB_51159904 Bus1=DEV_51159905.1.2.3 Bus2=DEV_51159906.1.2.3 phases=3 Linecode=lc2 Length=2.000000 units=ft !overhead line
New Line.BB_51159923 Bus1=DEV_51159924.1.2.3 Bus2=DEV_51159925.1.2.3 phases=3 Linecode=lc2 Length=2.000000 units=ft !overhead line
New Line.BB_51189818 Bus1=DEV_51189819.1.2.3 Bus2=DEV_51189820.1.2.3 phases=3 Linecode=lc2 Length=2.000000 units=ft !overhead line
New Line.DEV_258055_613672 Bus1=DEV_258055.1 Bus2=NODE_613672.1 phases=1 Linecode=lc3 Length=5.000000 units=ft !overhead line
New Line.DEV_258057_258060 Bus1=DEV_258057.1.2.3 Bus2=DEV_258060.1.2.3 phases=3 Linecode=lc4 Length=5.000000 units=ft !overhead line
New Line.DEV_259015_259020 Bus1=DEV_259015.1.2.3 Bus2=DEV_259020.1.2.3 phases=3 Linecode=lc4 Length=5.000000 units=ft !overhead line
New Line.DEV_259016_259186 Bus1=DEV_259016.1.2.3 Bus2=DEV_259186.1.2.3 phases=3 Linecode=lc4 Length=5.000000 units=ft !overhead line
New Line.DEV_259023_613672 Bus1=DEV_259023.2 Bus2=NODE_613672.2 phases=1 Linecode=lc3 Length=5.000000 units=ft !overhead line
New Line.DEV_259025_613672 Bus1=DEV_259025.3 Bus2=NODE_613672.3 phases=1 Linecode=lc3 Length=5.000000 units=ft !overhead line
New Line.DEV_259026_613672 Bus1=DEV_259026.1 Bus2=NODE_613672.1 phases=1 Linecode=lc3 Length=5.000000 units=ft !overhead line
New Line.DEV_259027_613672 Bus1=DEV_259027.2 Bus2=NODE_613672.2 phases=1 Linecode=lc3 Length=5.000000 units=ft !overhead line
New Line.DEV_259028_613672 Bus1=DEV_259028.3 Bus2=NODE_613672.3 phases=1 Linecode=lc3 Length=5.000000 units=ft !overhead line
New Line.DEV_259048_30049816 Bus1=DEV_259048.1 Bus2=NODE_30049816.1 phases=1 Linecode=lc3 Length=5.000000 units=ft !overhead line
New Line.DEV_259049_30049816 Bus1=DEV_259049.2 Bus2=NODE_30049816.2 phases=1 Linecode=lc3 Length=5.000000 units=ft !overhead line
New Line.DEV_259050_259159 Bus1=DEV_259050.1.2.3 Bus2=DEV_259159.1.2.3 phases=3 Linecode=lc4 Length=5.000000 units=ft !overhead line
New Line.DEV_259051_30049816 Bus1=DEV_259051.2 Bus2=NODE_30049816.2 phases=1 Linecode=lc3 Length=5.000000 units=ft !overhead line
New Line.DEV_259052_30049816 Bus1=DEV_259052.1 Bus2=NODE_30049816.1 phases=1 Linecode=lc3 Length=5.000000 units=ft !overhead line
New Line.DEV_259157_30049816 Bus1=DEV_259157.3 Bus2=NODE_30049816.3 phases=1 Linecode=lc3 Length=5.000000 units=ft !overhead line
New Line.DEV_259158_30049816 Bus1=DEV_259158.3 Bus2=NODE_30049816.3 phases=1 Linecode=lc3 Length=5.000000 units=ft !overhead line
New Line.DEV_263528_263530 Bus1=DEV_263528.1.2.3 Bus2=DEV_263530.1.2.3 phases=3 Linecode=lc4 Length=5.000000 units=ft !overhead line
New Line.DEV_263529_263531 Bus1=DEV_263529.1.2.3 Bus2=DEV_263531.1.2.3 phases=3 Linecode=lc4 Length=5.000000 units=ft !overhead line
New Line.DEV_263784_5011570 Bus1=DEV_263784.3 Bus2=NODE_5011570.3 phases=1 Linecode=lc3 Length=5.000000 units=ft !overhead line
New Line.DEV_263785_5011570 Bus1=DEV_263785.3 Bus2=NODE_5011570.3 phases=1 Linecode=lc3 Length=5.000000 units=ft !overhead line
New Line.DEV_263811_5011570 Bus1=DEV_263811.1 Bus2=NODE_5011570.1 phases=1 Linecode=lc3 Length=5.000000 units=ft !overhead line
New Line.DEV_263812_5011570 Bus1=DEV_263812.2 Bus2=NODE_5011570.2 phases=1 Linecode=lc3 Length=5.000000 units=ft !overhead line
New Line.DEV_263813_5011570 Bus1=DEV_263813.2 Bus2=NODE_5011570.2 phases=1 Linecode=lc3 Length=5.000000 units=ft !overhead line
New Line.DEV_263814_5011570 Bus1=DEV_263814.1 Bus2=NODE_5011570.1 phases=1 Linecode=lc3 Length=5.000000 units=ft !overhead line
New Line.DEV_263815_5011599 Bus1=DEV_263815.3 Bus2=NODE_5011599.3 phases=1 Linecode=lc3 Length=5.000000 units=ft !overhead line
New Line.DEV_263816_5011599 Bus1=DEV_263816.1 Bus2=NODE_5011599.1 phases=1 Linecode=lc3 Length=5.000000 units=ft !overhead line
New Line.DEV_263818_5011599 Bus1=DEV_263818.2 Bus2=NODE_5011599.2 phases=1 Linecode=lc3 Length=5.000000 units=ft !overhead line
New Line.DEV_263819_5011599 Bus1=DEV_263819.3 Bus2=NODE_5011599.3 phases=1 Linecode=lc3 Length=5.000000 units=ft !overhead line
New Line.DEV_263820_5011599 Bus1=DEV_263820.2 Bus2=NODE_5011599.2 phases=1 Linecode=lc3 Length=5.000000 units=ft !overhead line
New Line.DEV_263821_5011599 Bus1=DEV_263821.1 Bus2=NODE_5011599.1 phases=1 Linecode=lc3 Length=5.000000 units=ft !overhead line
New Line.DEV_263834_263922 Bus1=DEV_263834.1.2.3 Bus2=DEV_263922.1.2.3 phases=3 Linecode=lc4 Length=5.000000 units=ft !overhead line
New Line.DEV_263840_263841 Bus1=DEV_263840.1.2.3 Bus2=DEV_263841.1.2.3 phases=3 Linecode=lc4 Length=5.000000 units=ft !overhead line
New Line.DEV_263842_263843 Bus1=DEV_263842.1.2.3 Bus2=DEV_263843.1.2.3 phases=3 Linecode=lc4 Length=5.000000 units=ft !overhead line
New Line.DEV_263851_263923 Bus1=DEV_263851.1.2.3 Bus2=DEV_263923.1.2.3 phases=3 Linecode=lc4 Length=5.000000 units=ft !overhead line
New Line.DEV_264990_264991 Bus1=DEV_264990.1.2.3 Bus2=DEV_264991.1.2.3 phases=3 Linecode=lc5 Length=5.000000 units=ft !overhead line
New Line.DEV_265173_265175 Bus1=DEV_265173.1.2.3 Bus2=DEV_265175.1.2.3 phases=3 Linecode=lc4 Length=5.000000 units=ft !overhead line
New Line.DEV_265174_265176 Bus1=DEV_265174.1.2.3 Bus2=DEV_265176.1.2.3 phases=3 Linecode=lc4 Length=5.000000 units=ft !overhead line
New Line.DEV_265584_628203 Bus1=DEV_265584.1.2.3 Bus2=NODE_628203.1.2.3 phases=3 Linecode=lc5 Length=5.000000 units=ft !overhead line
New Line.DEV_51058546_51080616 Bus1=DEV_51058546.1.2.3 Bus2=DEV_51080616.1.2.3 phases=3 Linecode=lc5 Length=5.000000 units=ft !overhead line
New Line.DEV_51118372_51118374 Bus1=DEV_51118372.1.2.3 Bus2=DEV_51118374.1.2.3 phases=3 Linecode=lc4 Length=5.000000 units=ft !overhead line
New Line.DEV_51118373_51118375 Bus1=DEV_51118373.1.2.3 Bus2=DEV_51118375.1.2.3 phases=3 Linecode=lc4 Length=5.000000 units=ft !overhead line
New Line.DEV_51118540_51118542 Bus1=DEV_51118540.1.2.3 Bus2=DEV_51118542.1.2.3 phases=3 Linecode=lc4 Length=5.000000 units=ft !overhead line
New Line.DEV_51118541_51118543 Bus1=DEV_51118541.1.2.3 Bus2=DEV_51118543.1.2.3 phases=3 Linecode=lc4 Length=5.000000 units=ft !overhead line
New Line.DEV_51159905_51159907 Bus1=DEV_51159905.1.2.3 Bus2=DEV_51159907.1.2.3 phases=3 Linecode=lc4 Length=5.000000 units=ft !overhead line
New Line.DEV_51159906_51159908 Bus1=DEV_51159906.1.2.3 Bus2=DEV_51159908.1.2.3 phases=3 Linecode=lc4 Length=5.000000 units=ft !overhead line
New Line.DEV_51159924_51159926 Bus1=DEV_51159924.1.2.3 Bus2=DEV_51159926.1.2.3 phases=3 Linecode=lc4 Length=5.000000 units=ft !overhead line
New Line.DEV_51159925_51159927 Bus1=DEV_51159925.1.2.3 Bus2=DEV_51159927.1.2.3 phases=3 Linecode=lc4 Length=5.000000 units=ft !overhead line
New Line.DEV_51187193_628203 Bus1=DEV_51187193.1.2.3 Bus2=NODE_628203.1.2.3 phases=3 Linecode=lc4 Length=5.000000 units=ft !overhead line
New Line.DEV_51189819_51189821 Bus1=DEV_51189819.1.2.3 Bus2=DEV_51189821.1.2.3 phases=3 Linecode=lc4 Length=5.000000 units=ft !overhead line
New Line.DEV_51189820_51189822 Bus1=DEV_51189820.1.2.3 Bus2=DEV_51189822.1.2.3 phases=3 Linecode=lc4 Length=5.000000 units=ft !overhead line
New Line.OH_257608 Bus1=NODE_559690.3 Bus2=DEV_257789.3 phases=1 Linecode=lc6 Length=217.000000 units=ft !overhead line
New Line.OH_257609 Bus1=DEV_257789.3 Bus2=PRI_257609.3 phases=1 Linecode=lc6 Length=163.000000 units=ft !overhead line
New Line.OH_257610 Bus1=NODE_559756.3 Bus2=DEV_257509.3 phases=1 Linecode=lc6 Length=15.000000 units=ft !overhead line
New Line.OH_257780 Bus1=NODE_559690.3 Bus2=NODE_30111897.3 phases=1 Linecode=lc6 Length=54.000000 units=ft !overhead line
New Line.OH_257796 Bus1=DEV_257790.3 Bus2=NODE_559690.3 phases=1 Linecode=lc6 Length=385.000000 units=ft !overhead line
New Line.OH_257798 Bus1=DEV_257799.3 Bus2=DEV_257790.3 phases=1 Linecode=lc6 Length=317.000000 units=ft !overhead line
New Line.OH_257804 Bus1=NODE_559690.3 Bus2=DEV_257791.3 phases=1 Linecode=lc6 Length=134.000000 units=ft !overhead line
New Line.OH_257805 Bus1=DEV_257791.3 Bus2=PRI_257805.3 phases=1 Linecode=lc6 Length=190.000000 units=ft !overhead line
New Line.OH_257806 Bus1=DEV_257565.3 Bus2=DEV_257795.3 phases=1 Linecode=lc6 Length=177.000000 units=ft !overhead line
New Line.OH_257807 Bus1=DEV_257809.3 Bus2=DEV_257565.3 phases=1 Linecode=lc6 Length=331.000000 units=ft !overhead line
New Line.OH_257808 Bus1=DEV_257810.3 Bus2=DEV_257809.3 phases=1 Linecode=lc6 Length=328.000000 units=ft !overhead line
New Line.OH_257811 Bus1=DEV_257812.3 Bus2=DEV_257810.3 phases=1 Linecode=lc6 Length=164.000000 units=ft !overhead line
New Line.OH_257813 Bus1=DEV_257814.3 Bus2=DEV_257812.3 phases=1 Linecode=lc6 Length=323.000000 units=ft !overhead line
New Line.OH_257815 Bus1=DEV_257816.3 Bus2=DEV_257814.3 phases=1 Linecode=lc6 Length=383.000000 units=ft !overhead line
New Line.OH_257817 Bus1=NODE_559756.3 Bus2=DEV_257816.3 phases=1 Linecode=lc6 Length=149.000000 units=ft !overhead line
New Line.OH_257818 Bus1=DEV_257816.3 Bus2=NODE_30111897.3 phases=1 Linecode=lc6 Length=184.000000 units=ft !overhead line
New Line.OH_257819 Bus1=DEV_257820.3 Bus2=NODE_559756.3 phases=1 Linecode=lc6 Length=12.000000 units=ft !overhead line
New Line.OH_257824 Bus1=DEV_257795.3 Bus2=PRI_257824.3 phases=1 Linecode=lc6 Length=159.000000 units=ft !overhead line
New Line.OH_258777 Bus1=DEV_258994.1.2.3 Bus2=NODE_609020.1.2.3 phases=3 Linecode=lc7 Length=1151.000000 units=ft !overhead line
New Line.OH_258778 Bus1=NODE_609020.1.2.3 Bus2=NODE_609022.1.2.3 phases=3 Linecode=lc8 Length=984.000000 units=ft !overhead line
New Line.OH_258779 Bus1=NODE_609022.1.2.3 Bus2=NODE_609096.1.2.3 phases=3 Linecode=lc8 Length=278.000000 units=ft !overhead line
New Line.OH_258780 Bus1=DEV_258913.1.2.3 Bus2=NODE_609020.1.2.3 phases=3 Linecode=lc8 Length=13.000000 units=ft !overhead line
New Line.OH_258781 Bus1=NODE_609020.1.2.3 Bus2=DEV_258789.1.2.3 phases=3 Linecode=lc8 Length=13.000000 units=ft !overhead line
New Line.OH_258783 Bus1=NODE_609096.1.2.3 Bus2=DEV_258893.1.2.3 phases=3 Linecode=lc7 Length=18.000000 units=ft !overhead line
New Line.OH_258787 Bus1=DEV_258994.1.2.3 Bus2=NODE_11021908.1.2.3 phases=3 Linecode=lc7 Length=312.000000 units=ft !overhead line
New Line.OH_258795 Bus1=NODE_609096.1 Bus2=DEV_258796.1 phases=1 Linecode=lc9 Length=10.000000 units=ft !overhead line
New Line.OH_259262 Bus1=NODE_613383.1.2.3 Bus2=NODE_11021869.1.2.3 phases=3 Linecode=lc7 Length=1223.000000 units=ft !overhead line
New Line.OH_259263 Bus1=NODE_613383.1.2.3 Bus2=DEV_259251.1.2.3 phases=3 Linecode=lc7 Length=34.000000 units=ft !overhead line
New Line.OH_259264 Bus1=NODE_613383.1.2.3 Bus2=NODE_613393.1.2.3 phases=3 Linecode=lc7 Length=229.000000 units=ft !overhead line
New Line.OH_259265 Bus1=NODE_613393.1.2.3 Bus2=NODE_613395.1.2.3 phases=3 Linecode=lc7 Length=658.000000 units=ft !overhead line
New Line.OH_259266 Bus1=NODE_613395.1.2.3 Bus2=NODE_613398.1.2.3 phases=3 Linecode=lc7 Length=310.000000 units=ft !overhead line
New Line.OH_259268 Bus1=NODE_613398.1.2.3 Bus2=NODE_613405.1.2.3 phases=3 Linecode=lc10 Length=361.000000 units=ft !overhead line
New Line.OH_259269 Bus1=NODE_613405.1.2.3 Bus2=NODE_613407.1.2.3 phases=3 Linecode=lc10 Length=115.000000 units=ft !overhead line
New Line.OH_259270 Bus1=NODE_613407.1.2.3 Bus2=NODE_11021868.1.2.3 phases=3 Linecode=lc7 Length=228.000000 units=ft !overhead line
New Line.OH_259522 Bus1=NODE_11021869.1.2.3 Bus2=NODE_11021870.1.2.3 phases=3 Linecode=lc7 Length=151.000000 units=ft !overhead line
New Line.OH_260847 Bus1=DEV_51077536.1.2.3 Bus2=DEV_260853.1.2.3 phases=3 Linecode=lc11 Length=121.000000 units=ft !overhead line
New Line.OH_260848 Bus1=DEV_260853.1.2.3 Bus2=NODE_632693.1.2.3 phases=3 Linecode=lc11 Length=197.000000 units=ft !overhead line
New Line.OH_260849 Bus1=NODE_632693.1.2.3 Bus2=DEV_260852.1.2.3 phases=3 Linecode=lc11 Length=355.000000 units=ft !overhead line
New Line.OH_260850 Bus1=DEV_260852.1.2.3 Bus2=DEV_260851.1.2.3 phases=3 Linecode=lc11 Length=548.000000 units=ft !overhead line
New Line.OH_260929 Bus1=NODE_630664.1.2.3 Bus2=NODE_11021960.1.2.3 phases=3 Linecode=lc11 Length=32.000000 units=ft !overhead line
New Line.OH_260930 Bus1=DEV_260934.1.3 Bus2=DEV_51187136.1.3 phases=2 Linecode=lc12 Length=142.000000 units=ft !overhead line
New Line.OH_260931 Bus1=NODE_11021962.1.3 Bus2=DEV_260934.1.3 phases=2 Linecode=lc13 Length=179.000000 units=ft !overhead line
New Line.OH_260932 Bus1=NODE_11021963.1.3 Bus2=DEV_260933.1.3 phases=2 Linecode=lc14 Length=175.000000 units=ft !overhead line
New Line.OH_260935 Bus1=DEV_260951.1.2.3 Bus2=NODE_630664.1.2.3 phases=3 Linecode=lc11 Length=634.000000 units=ft !overhead line
New Line.OH_260936 Bus1=NODE_630695.1.2.3 Bus2=DEV_50012016.1.2.3 phases=3 Linecode=lc11 Length=57.000000 units=ft !overhead line
New Line.OH_260937 Bus1=DEV_260944.1.2.3 Bus2=NODE_630695.1.2.3 phases=3 Linecode=lc11 Length=304.000000 units=ft !overhead line
New Line.OH_260938 Bus1=NODE_630679.1.2.3 Bus2=DEV_260944.1.2.3 phases=3 Linecode=lc11 Length=228.000000 units=ft !overhead line
New Line.OH_260939 Bus1=NODE_630677.1.2.3 Bus2=NODE_630679.1.2.3 phases=3 Linecode=lc11 Length=225.000000 units=ft !overhead line
New Line.OH_260940 Bus1=DEV_260942.1.2.3 Bus2=NODE_630677.1.2.3 phases=3 Linecode=lc11 Length=305.000000 units=ft !overhead line
New Line.OH_260941 Bus1=DEV_51077536.1.2.3 Bus2=DEV_260942.1.2.3 phases=3 Linecode=lc11 Length=369.000000 units=ft !overhead line
New Line.OH_260945 Bus1=DEV_260949.1.2.3 Bus2=NODE_630695.1.2.3 phases=3 Linecode=lc8 Length=153.000000 units=ft !overhead line
New Line.OH_260946 Bus1=DEV_260948.1.2.3 Bus2=DEV_260949.1.2.3 phases=3 Linecode=lc8 Length=309.000000 units=ft !overhead line
New Line.OH_260947 Bus1=NODE_11021965.1.2.3 Bus2=DEV_260948.1.2.3 phases=3 Linecode=lc8 Length=187.000000 units=ft !overhead line
New Line.OH_260950 Bus1=NODE_630695.1.2.3 Bus2=DEV_260953.1.2.3 phases=3 Linecode=lc8 Length=181.000000 units=ft !overhead line
New Line.OH_260952 Bus1=NODE_630664.1.3 Bus2=NODE_11021961.1.3 phases=2 Linecode=lc13 Length=69.000000 units=ft !overhead line
New Line.OH_260955 Bus1=DEV_50012016.1.2.3 Bus2=DEV_260951.1.2.3 phases=3 Linecode=lc11 Length=74.000000 units=ft !overhead line
New Line.OH_261168 Bus1=NODE_630598.1.3 Bus2=NODE_11021962.1.3 phases=2 Linecode=lc12 Length=96.000000 units=ft !overhead line
New Line.OH_261169 Bus1=NODE_630598.1.3 Bus2=NODE_11021963.1.3 phases=2 Linecode=lc14 Length=260.000000 units=ft !overhead line
New Line.OH_261170 Bus1=NODE_630598.1.3 Bus2=DEV_261171.1.3 phases=2 Linecode=lc12 Length=1167.000000 units=ft !overhead line
New Line.OH_261399 Bus1=PRI_261399.1.3 Bus2=NODE_11021973.1.3 phases=2 Linecode=lc14 Length=143.000000 units=ft !overhead line
New Line.OH_261400 Bus1=DEV_261404.1.2.3 Bus2=NODE_11021972.1.2.3 phases=3 Linecode=lc8 Length=209.000000 units=ft !overhead line
New Line.OH_261401 Bus1=NODE_618744.1.2.3 Bus2=NODE_618756.1.2.3 phases=3 Linecode=lc8 Length=456.000000 units=ft !overhead line
...
