ProjectFiles/HECOHI/DSSfiles/line_res.dss
New Line.OH_264883_1_1 phases=1 bus1=DEV_264884_TSF25.2 bus2=DEV_264884_433.2 linecode=OH_4_AAC length=51 units=ft
New Line.OH_264883_1_2 phases=1 bus1=DEV_264884_TSF25.2 bus2=DEV_264884_425.2 linecode=OH_4_AAC length=38 units=ft
New Line.OH_264883_1_3 phases=1 bus1=DEV_264884_TSF25.2 bus2=DEV_264884_424.2 linecode=OH_4_AAC length=64 units=ft
New Line.OH_264883_1_4 phases=1 bus1=DEV_264884_TSF25.2 bus2=DEV_264884_P2.2 linecode=OH_4_Cu length=139 units=ft
New Line.OH_264883_1_5 phases=1 bus1=DEV_264884_P2.2 bus2=DEV_264884_419.2 linecode=OH_4_AAC length=21 units=ft
New Line.OH_264883_1_6 phases=1 bus1=DEV_264884_P2.2 bus2=DEV_264884_411.2 linecode=OH_1/0_AAC length=24 units=ft
New Line.OH_264883_1_7 phases=1 bus1=DEV_264884_P2.2 bus2=DEV_264884_418.2 linecode=OH_4_AAC length=62 units=ft
New Line.OH_264883_1_8 phases=1 bus1=DEV_264884_P2.2 bus2=DEV_264884_P1.2 linecode=OH_4_Cu length=108 units=ft
New Line.OH_264883_1_9 phases=1 bus1=DEV_264884_P1.2 bus2=DEV_264884_352.2 linecode=OH_1/0_AAC length=32 units=ft
New Line.OH_264883_1_10 phases=1 bus1=DEV_264884_P1.2 bus2=DEV_264884_406.2 linecode=OH_4_AAC length=63 units=ft
New Line.OH_264883_1_11 phases=1 bus1=DEV_264884_TSF25.2 bus2=DEV_264884_P4.2 linecode=OH_4_Cu length=139 units=ft
New Line.OH_264883_1_12 phases=1 bus1=DEV_264884_P4.2 bus2=DEV_264884_439.2 linecode=OH_4_AAC length=31 units=ft
New Line.OH_264883_1_13 phases=1 bus1=DEV_264884_P4.2 bus2=DEV_264884_440.2 linecode=OH_4_AAC length=65 units=ft
New Line.OH_264883_1_14 phases=1 bus1=DEV_264884_P4.2 bus2=DEV_264884_P5.2 linecode=OH_4_Cu length=139 units=ft
New Line.OH_264883_1_15 phases=1 bus1=DEV_264884_P5.2 bus2=DEV_264884_460.2 linecode=OH_1/0_AAC length=57 units=ft
New Line.OH_264883_1_16 phases=1 bus1=DEV_264884_P5.2 bus2=DEV_264884_POLE.2 linecode=OH_1/0_AAC length=82 units=ft
New Line.OH_264883_1_17 phases=1 bus1=DEV_264884_P4.2 bus2=DEV_264884_441.2 linecode=UG_#2_Al length=60 units=ft
New Line.OH_264883_1_18 phases=1 bus1=DEV_264884_POLE.2 bus2=DEV_264884_462.2 linecode=UG_#2_Al length=79 units=ft
New Line.OH_264887_1_1 phases=1 bus1=DEV_264888_TSF25.2 bus2=DEV_264888_775.2 linecode=OH_4_AAC length=38 units=ft
New Line.OH_264887_1_2 phases=1 bus1=DEV_264888_TSF25.2 bus2=DEV_264888_780.2 linecode=OH_1/0_AAC length=76 units=ft
New Line.OH_264887_1_3 phases=1 bus1=DEV_264888_TSF25.2 bus2=DEV_264888_T1.2 linecode=OH_1/0_AAC length=18 units=ft
New Line.OH_264887_1_4 phases=1 bus1=DEV_264888_T1.2 bus2=DEV_264888_783.2 linecode=OH_1/0_AAC length=40 units=ft
New Line.OH_264887_1_5 phases=1 bus1=DEV_264888_T1.2 bus2=DEV_264888_T2.2 linecode=OH_1/0_AAC length=60 units=ft
New Line.OH_264887_1_6 phases=1 bus1=DEV_264888_T2.2 bus2=DEV_264888_788.2 linecode=OH_1/0_AAC length=62 units=ft
New Line.OH_264887_1_7 phases=1 bus1=DEV_264888_T2.2 bus2=DEV_264888_T3.2 linecode=OH_1/0_AAC length=29 units=ft
New Line.OH_264887_1_8 phases=1 bus1=DEV_264888_T3.2 bus2=DEV_264888_790.2 linecode=OH_1/0_AAC length=63 units=ft
New Line.OH_264887_1_9 phases=1 bus1=DEV_264888_T3.2 bus2=DEV_264888_T4.2 linecode=OH_1/0_AAC length=31 units=ft
New Line.OH_264887_1_10 phases=1 bus1=DEV_264888_T4.2 bus2=DEV_264888_793.2 linecode=OH_4_AAC length=38 units=ft
New Line.OH_264887_1_11 phases=1 bus1=DEV_264888_T4.2 bus2=DEV_264888_796.2 linecode=OH_1/0_AAC length=67 units=ft
New Line.OH_264887_1_12 phases=1 bus1=DEV_264888_T4.2 bus2=DEV_264888_P10.2 linecode=OH_1/0_AAC length=8 units=ft
New Line.OH_264887_1_13 phases=1 bus1=DEV_264888_P10.2 bus2=DEV_264888_797.2 linecode=OH_1/0_AAC length=33 units=ft
New Line.OH_264887_1_14 phases=1 bus1=DEV_264888_P10.2 bus2=DEV_264888_P9.2 linecode=OH_1/0_AAC length=196 units=ft
New Line.OH_264887_1_15 phases=1 bus1=DEV_264888_TSF25.2 bus2=DEV_264888_T5.2 linecode=OH_1/0_AAC length=86 units=ft
New Line.OH_264887_1_16 phases=1 bus1=DEV_264888_T5.2 bus2=DEV_264888_770.2 linecode=OH_4_AAC length=74 units=ft
New Line.OH_264887_1_17 phases=1 bus1=DEV_264888_T5.2 bus2=DEV_264888_P12.2 linecode=OH_1/0_AAC length=62 units=ft
New Line.OH_264887_1_18 phases=1 bus1=DEV_264888_P12.2 bus2=DEV_264888_769.2 linecode=OH_4_AAC length=37 units=ft
New Line.OH_264887_1_19 phases=1 bus1=DEV_264888_P12.2 bus2=DEV_264888_763.2 linecode=OH_1/0_AAC length=40 units=ft
New Line.OH_264889_1_1 phases=1 bus1=DEV_264891_TSF25.1 bus2=DEV_264891_433.1 linecode=OH_4_AAC length=51 units=ft
New Line.OH_264889_1_2 phases=1 bus1=DEV_264891_TSF25.1 bus2=DEV_264891_425.1 linecode=OH_4_AAC length=38 units=ft
New Line.OH_264889_1_3 phases=1 bus1=DEV_264891_TSF25.1 bus2=DEV_264891_424.1 linecode=OH_4_AAC length=64 units=ft
New Line.OH_264889_1_4 phases=1 bus1=DEV_264891_TSF25.1 bus2=DEV_264891_P2.1 linecode=OH_4_Cu length=139 units=ft
New Line.OH_264889_1_5 phases=1 bus1=DEV_264891_P2.1 bus2=DEV_264891_419.1 linecode=OH_4_AAC length=21 units=ft
New Line.OH_264889_1_6 phases=1 bus1=DEV_264891_P2.1 bus2=DEV_264891_411.1 linecode=OH_1/0_AAC length=24 units=ft
New Line.OH_264889_1_7 phases=1 bus1=DEV_264891_P2.1 bus2=DEV_264891_418.1 linecode=OH_4_AAC length=62 units=ft
New Line.OH_264889_1_8 phases=1 bus1=DEV_264891_P2.1 bus2=DEV_264891_P1.1 linecode=OH_4_Cu length=108 units=ft
New Line.OH_264889_1_9 phases=1 bus1=DEV_264891_P1.1 bus2=DEV_264891_352.1 linecode=OH_1/0_AAC length=32 units=ft
New Line.OH_264889_1_10 phases=1 bus1=DEV_264891_P1.1 bus2=DEV_264891_406.1 linecode=OH_4_AAC length=63 units=ft
New Line.OH_264889_1_11 phases=1 bus1=DEV_264891_TSF25.1 bus2=DEV_264891_P4.1 linecode=OH_4_Cu length=139 units=ft
New Line.OH_264889_1_12 phases=1 bus1=DEV_264891_P4.1 bus2=DEV_264891_439.1 linecode=OH_4_AAC length=31 units=ft
New Line.OH_264889_1_13 phases=1 bus1=DEV_264891_P4.1 bus2=DEV_264891_440.1 linecode=OH_4_AAC length=65 units=ft
New Line.OH_264889_1_14 phases=1 bus1=DEV_264891_P4.1 bus2=DEV_264891_P5.1 linecode=OH_4_Cu length=139 units=ft
New Line.OH_264889_1_15 phases=1 bus1=DEV_264891_P5.1 bus2=DEV_264891_460.1 linecode=OH_1/0_AAC length=57 units=ft
New Line.OH_264889_1_16 phases=1 bus1=DEV_264891_P5.1 bus2=DEV_264891_POLE.1 linecode=OH_1/0_AAC length=82 units=ft
New Line.OH_264889_1_17 phases=1 bus1=DEV_264891_P4.1 bus2=DEV_264891_441.1 linecode=UG_#2_Al length=60 units=ft
New Line.OH_264889_1_18 phases=1 bus1=DEV_264891_POLE.1 bus2=DEV_264891_462.1 linecode=UG_#2_Al length=79 units=ft
New Line.OH_264893_1_1 phases=1 bus1=DEV_264894_TSF25.1 bus2=DEV_264894_775.1 linecode=OH_4_AAC length=38 units=ft
New Line.OH_264893_1_2 phases=1 bus1=DEV_264894_TSF25.1 bus2=DEV_264894_780.1 linecode=OH_1/0_AAC length=76 units=ft
New Line.OH_264893_1_3 phases=1 bus1=DEV_264894_TSF25.1 bus2=DEV_264894_T1.1 linecode=OH_1/0_AAC length=18 units=ft
New Line.OH_264893_1_4 phases=1 bus1=DEV_264894_T1.1 bus2=DEV_264894_783.1 linecode=OH_1/0_AAC length=40 units=ft
New Line.OH_264893_1_5 phases=1 bus1=DEV_264894_T1.1 bus2=DEV_264894_T2.1 linecode=OH_1/0_AAC length=60 units=ft
New Line.OH_264893_1_6 phases=1 bus1=DEV_264894_T2.1 bus2=DEV_264894_788.1 linecode=OH_1/0_AAC length=62 units=ft
New Line.OH_264893_1_7 phases=1 bus1=DEV_264894_T2.1 bus2=DEV_264894_T3.1 linecode=OH_1/0_AAC length=29 units=ft
New Line.OH_264893_1_8 phases=1 bus1=DEV_264894_T3.1 bus2=DEV_264894_790.1 linecode=OH_1/0_AAC length=63 units=ft
New Line.OH_264893_1_9 phases=1 bus1=DEV_264894_T3.1 bus2=DEV_264894_T4.1 linecode=OH_1/0_AAC length=31 units=ft
New Line.OH_264893_1_10 phases=1 bus1=DEV_264894_T4.1 bus2=DEV_264894_793.1 linecode=OH_4_AAC length=38 units=ft
New Line.OH_264893_1_11 phases=1 bus1=DEV_264894_T4.1 bus2=DEV_264894_796.1 linecode=OH_1/0_AAC length=67 units=ft
New Line.OH_264893_1_12 phases=1 bus1=DEV_264894_T4.1 bus2=DEV_264894_P10.1 linecode=OH_1/0_AAC length=8 units=ft
New Line.OH_264893_1_13 phases=1 bus1=DEV_264894_P10.1 bus2=DEV_264894_797.1 linecode=OH_1/0_AAC length=33 units=ft
New Line.OH_264893_1_14 phases=1 bus1=DEV_264894_P10.1 bus2=DEV_264894_P9.1 linecode=OH_1/0_AAC length=196 units=ft
New Line.OH_264893_1_15 phases=1 bus1=DEV_264894_TSF25.1 bus2=DEV_264894_T5.1 linecode=OH_1/0_AAC length=86 units=ft
New Line.OH_264893_1_16 phases=1 bus1=DEV_264894_T5.1 bus2=DEV_264894_770.1 linecode=OH_4_AAC length=74 units=ft
New Line.OH_264893_1_17 phases=1 bus1=DEV_264894_T5.1 bus2=DEV_264894_P12.1 linecode=OH_1/0_AAC length=62 units=ft
New Line.OH_264893_1_18 phases=1 bus1=DEV_264894_P12.1 bus2=DEV_264894_769.1 linecode=OH_4_AAC length=37 units=ft
New Line.OH_264893_1_19 phases=1 bus1=DEV_264894_P12.1 bus2=DEV_264894_763.1 linecode=OH_1/0_AAC length=40 units=ft
New Line.OH_264898_1_1 phases=1 bus1=DEV_264901_TSF15.2 bus2=DEV_264901_T1.2 linecode=OH_1/0_AAC length=70 units=ft
New Line.OH_264898_1_2 phases=1 bus1=DEV_264901_T1.2 bus2=DEV_264901_5833.2 linecode=OH_4_AAC length=54 units=ft
New Line.OH_264898_1_3 phases=1 bus1=DEV_264901_T1.2 bus2=DEV_264901_P23.2 linecode=OH_1/0_AAC length=86 units=ft
New Line.OH_264898_1_4 phases=1 bus1=DEV_264901_P23.2 bus2=DEV_264901_T2.2 linecode=OH_1/0_AAC length=49 units=ft
New Line.OH_264898_1_5 phases=1 bus1=DEV_264901_T2.2 bus2=DEV_264901_367.2 linecode=OH_4_AAC length=54 units=ft
New Line.OH_264898_1_6 phases=1 bus1=DEV_264901_T2.2 bus2=DEV_264901_T3.2 linecode=OH_1/0_AAC length=41 units=ft
New Line.OH_264898_1_7 phases=1 bus1=DEV_264901_T3.2 bus2=DEV_264901_5815.2 linecode=OH_1/0_AAC length=32 units=ft
New Line.OH_264898_1_8 phases=1 bus1=DEV_264901_T3.2 bus2=DEV_264901_5808.2 linecode=OH_1/0_AAC length=49 units=ft
New Line.OH_264898_1_9 phases=1 bus1=DEV_264901_T3.2 bus2=DEV_264901_P22.2 linecode=OH_1/0_AAC length=71 units=ft
New Line.OH_264898_1_10 phases=1 bus1=DEV_264901_TSF15.2 bus2=DEV_264901_T4.2 linecode=OH_1/0_AAC length=54 units=ft
New Line.OH_264898_1_11 phases=1 bus1=DEV_264901_T4.2 bus2=DEV_264901_5838.2 linecode=OH_1/0_AAC length=57 units=ft
New Line.OH_264903_1_1 phases=1 bus1=DEV_264904_TSF25.2 bus2=DEV_264904_433.2 linecode=OH_4_AAC length=51 units=ft
New Line.OH_264903_1_2 phases=1 bus1=DEV_264904_TSF25.2 bus2=DEV_264904_425.2 linecode=OH_4_AAC length=38 units=ft
New Line.OH_264903_1_3 phases=1 bus1=DEV_264904_TSF25.2 bus2=DEV_264904_424.2 linecode=OH_4_AAC length=64 units=ft
New Line.OH_264903_1_4 phases=1 bus1=DEV_264904_TSF25.2 bus2=DEV_264904_P2.2 linecode=OH_4_Cu length=139 units=ft
New Line.OH_264903_1_5 phases=1 bus1=DEV_264904_P2.2 bus2=DEV_264904_419.2 linecode=OH_4_AAC length=21 units=ft
New Line.OH_264903_1_6 phases=1 bus1=DEV_264904_P2.2 bus2=DEV_264904_411.2 linecode=OH_1/0_AAC length=24 units=ft
New Line.OH_264903_1_7 phases=1 bus1=DEV_264904_P2.2 bus2=DEV_264904_418.2 linecode=OH_4_AAC length=62 units=ft
New Line.OH_264903_1_8 phases=1 bus1=DEV_264904_P2.2 bus2=DEV_264904_P1.2 linecode=OH_4_Cu length=108 units=ft
New Line.OH_264903_1_9 phases=1 bus1=DEV_264904_P1.2 bus2=DEV_264904_352.2 linecode=OH_1/0_AAC length=32 units=ft
New Line.OH_264903_1_10 phases=1 bus1=DEV_264904_P1.2 bus2=DEV_264904_406.2 linecode=OH_4_AAC length=63 units=ft
New Line.OH_264903_1_11 phases=1 bus1=DEV_264904_TSF25.2 bus2=DEV_264904_P4.2 linecode=OH_4_Cu length=139 units=ft
New Line.OH_264903_1_12 phases=1 bus1=DEV_264904_P4.2 bus2=DEV_264904_439.2 linecode=OH_4_AAC length=31 units=ft
New Line.OH_264903_1_13 phases=1 bus1=DEV_264904_P4.2 bus2=DEV_264904_440.2 linecode=OH_4_AAC length=65 units=ft
New Line.OH_264903_1_14 phases=1 bus1=DEV_264904_P4.2 bus2=DEV_264904_P5.2 linecode=OH_4_Cu length=139 units=ft
New Line.OH_264903_1_15 phases=1 bus1=DEV_264904_P5.2 bus2=DEV_264904_460.2 linecode=OH_1/0_AAC length=57 units=ft
New Line.OH_264903_1_16 phases=1 bus1=DEV_264904_P5.2 bus2=DEV_264904_POLE.2 linecode=OH_1/0_AAC length=82 units=ft
New Line.OH_264903_1_17 phases=1 bus1=DEV_264904_P4.2 bus2=DEV_264904_441.2 linecode=UG_#2_Al length=60 units=ft
New Line.OH_264903_1_18 phases=1 bus1=DEV_264904_POLE.2 bus2=DEV_264904_462.2 linecode=UG_#2_Al length=79 units=ft
New Line.OH_264913_1_1 phases=1 bus1=DEV_264915_TSF50.1 bus2=DEV_264915_T1.1 linecode=OH_1/0_AAC length=15 units=ft
New Line.OH_264913_1_2 phases=1 bus1=DEV_264915_T1.1 bus2=DEV_264915_1338.1 linecode=OH_1/0_AAC length=57 units=ft
New Line.OH_264913_1_3 phases=1 bus1=DEV_264915_T1.1 bus2=DEV_264915_T2.1 linecode=OH_1/0_AAC length=47 units=ft
New Line.OH_264913_1_4 phases=1 bus1=DEV_264915_T2.1 bus2=DEV_264915_1333.1 linecode=OH_4_AAC length=22 units=ft
New Line.OH_264913_1_5 phases=1 bus1=DEV_264915_T2.1 bus2=DEV_264915_T3.1 linecode=OH_1/0_AAC length=11 units=ft
New Line.OH_264913_1_6 phases=1 bus1=DEV_264915_T3.1 bus2=DEV_264915_1327.1 linecode=OH_4_AAC length=56 units=ft
New Line.OH_264913_1_7 phases=1 bus1=DEV_264915_T3.1 bus2=DEV_264915_1332.1 linecode=OH_4_AAC length=44 units=ft
New Line.OH_264913_1_8 phases=1 bus1=DEV_264915_T3.1 bus2=DEV_264915_T4.1 linecode=OH_1/0_AAC length=13 units=ft
New Line.OH_264913_1_9 phases=1 bus1=DEV_264915_T4.1 bus2=DEV_264915_1326.1 linecode=OH_1/0_AAC length=45 units=ft
New Line.OH_264913_1_10 phases=1 bus1=DEV_264915_T4.1 bus2=DEV_264915_P17.10.1 linecode=OH_1/0_AAC length=38 units=ft
New Line.OH_264913_1_11 phases=1 bus1=DEV_264915_P17.10.1 bus2=DEV_264915_T5.1 linecode=OH_1/0_AAC length=55 units=ft
New Line.OH_264913_1_12 phases=1 bus1=DEV_264915_T5.1 bus2=DEV_264915_1320.1 linecode=OH_1/0_AAC length=45 units=ft
New Line.OH_264913_1_13 phases=1 bus1=DEV_264915_T5.1 bus2=DEV_264915_T6.1 linecode=OH_1/0_AAC length=14 units=ft
New Line.OH_264913_1_14 phases=1 bus1=DEV_264915_T6.1 bus2=DEV_264915_1321.1 linecode=OH_4_AAC length=58 units=ft
New Line.OH_264913_1_15 phases=1 bus1=DEV_264915_T6.1 bus2=DEV_264915_T7.1 linecode=OH_1/0_AAC length=6 units=ft
New Line.OH_264913_1_16 phases=1 bus1=DEV_264915_T7.1 bus2=DEV_264915_1315.1 linecode=OH_4_AAC length=22 units=ft
New Line.OH_264913_1_17 phases=1 bus1=DEV_264915_T7.1 bus2=DEV_264915_T8.1 linecode=OH_1/0_AAC length=21 units=ft
New Line.OH_264913_1_18 phases=1 bus1=DEV_264915_T8.1 bus2=DEV_264915_1312.1 linecode=OH_1/0_AAC length=44 units=ft
New Line.OH_264913_1_19 phases=1 bus1=DEV_264915_T8.1 bus2=DEV_264915_P17.1 linecode=OH_1/0_AAC length=44 units=ft
New Line.OH_264913_1_20 phases=1 bus1=DEV_264915_T8.1 bus2=DEV_264915_0_P17.1 linecode=OH_1/0_AAC length=44 units=ft
New Line.OH_264913_1_21 phases=1 bus1=DEV_264915_T8.1 bus2=DEV_264915_1_P17.1 linecode=OH_1/0_AAC length=44 units=ft
New Line.OH_264913_1_22 phases=1 bus1=DEV_264915_T8.1 bus2=DEV_264915_2_P17.1 linecode=OH_1/0_AAC length=44 units=ft
New Line.OH_264913_1_23 phases=1 bus1=DEV_264915_T8.1 bus2=DEV_264915_3_P17.1 linecode=OH_1/0_AAC length=44 units=ft
New Line.OH_264913_1_24 phases=1 bus1=DEV_264915_T8.1 bus2=DEV_264915_4_P17.1 linecode=OH_1/0_AAC length=44 units=ft
New Line.OH_264913_1_25 phases=1 bus1=DEV_264915_T8.1 bus2=DEV_264915_5_P17.1 linecode=OH_1/0_AAC length=44 units=ft
New Line.OH_264913_1_26 phases=1 bus1=DEV_264915_T8.1 bus2=DEV_264915_6_P17.1 linecode=OH_1/0_AAC length=44 units=ft
New Line.OH_264913_1_27 phases=1 bus1=DEV_264915_T8.1 bus2=DEV_264915_7_P17.1 linecode=OH_1/0_AAC length=44 units=ft
New Line.OH_264913_1_28 phases=1 bus1=DEV_264915_T8.1 bus2=DEV_264915_8_P17.1 linecode=OH_1/0_AAC length=44 units=ft
New Line.OH_264913_1_29 phases=1 bus1=DEV_264915_T8.1 bus2=DEV_264915_9_P17.1 linecode=OH_1/0_AAC length=44 units=ft
New Line.OH_264913_1_30 phases=1 bus1=DEV_264915_T8.1 bus2=DEV_264915_10_P17.1 linecode=OH_1/0_AAC length=44 units=ft
New Line.OH_264919_1_1 phases=1 bus1=DEV_264921_TSF25.1 bus2=DEV_264921_T1.1 linecode=OH_1/0_AAC length=30 units=ft
New Line.OH_264919_1_2 phases=1 bus1=DEV_264921_T1.1 bus2=DEV_264921_644.1 linecode=OH_4_AAC length=32 units=ft
New Line.OH_264919_1_3 phases=1 bus1=DEV_264921_T1.1 bus2=DEV_264921_T2.1 linecode=OH_1/0_AAC length=104 units=ft
New Line.OH_264919_1_4 phases=1 bus1=DEV_264921_T2.1 bus2=DEV_264921_648.1 linecode=OH_4_AAC length=39 units=ft
New Line.OH_264919_1_5 phases=1 bus1=DEV_264921_T2.1 bus2=DEV_264921_645.1 linecode=OH_1/0_AAC length=87 units=ft
New Line.OH_264919_1_6 phases=1 bus1=DEV_264921_T2.1 bus2=DEV_264921_T3.1 linecode=OH_1/0_AAC length=44 units=ft
New Line.OH_264919_1_7 phases=1 bus1=DEV_264921_T3.1 bus2=DEV_264921_650/650A.1 linecode=OH_4_AAC length=53 units=ft
New Line.OH_264919_1_8 phases=1 bus1=DEV_264921_T3.1 bus2=DEV_264921_649.1 linecode=OH_1/0_AAC length=68 units=ft
New Line.OH_264919_1_9 phases=1 bus1=DEV_264921_T3.1 bus2=DEV_264921_P45.1 linecode=OH_1/0_AAC length=26 units=ft
New Line.OH_264919_1_10 phases=1 bus1=DEV_264921_TSF25.1 bus2=DEV_264921_T4.1 linecode=OH_1/0_AAC length=39 units=ft
New Line.OH_264919_1_11 phases=1 bus1=DEV_264921_T4.1 bus2=DEV_264921_640.1 linecode=OH_4_AAC length=27 units=ft
New Line.OH_264919_1_12 phases=1 bus1=DEV_264921_T4.1 bus2=DEV_264921_T5.1 linecode=OH_1/0_AAC length=22 units=ft
New Line.OH_264919_1_13 phases=1 bus1=DEV_264921_T5.1 bus2=DEV_264921_639.1 linecode=OH_1/0_AAC length=66 units=ft
New Line.OH_264919_1_14 phases=1 bus1=DEV_264921_T5.1 bus2=DEV_264921_T6.1 linecode=OH_1/0_AAC length=20 units=ft
New Line.OH_264919_1_15 phases=1 bus1=DEV_264921_T6.1 bus2=DEV_264921_636.1 linecode=OH_4_AAC length=27 units=ft
New Line.OH_264919_1_16 phases=1 bus1=DEV_264921_T6.1 bus2=DEV_264921_T7.1 linecode=OH_1/0_AAC length=62 units=ft
New Line.OH_264919_1_17 phases=1 bus1=DEV_264921_T7.1 bus2=DEV_264921_635/635A.1 linecode=OH_1/0_AAC length=121 units=ft
New Line.OH_264919_1_18 phases=1 bus1=DEV_264921_T7.1 bus2=DEV_264921_631.1 linecode=OH_4_AAC length=85 units=ft
New Line.OH_264922_1_1 phases=1 bus1=DEV_264923_TSF25.1 bus2=DEV_264923_433.1 linecode=OH_4_AAC length=51 units=ft
New Line.OH_264922_1_2 phases=1 bus1=DEV_264923_TSF25.1 bus2=DEV_264923_425.1 linecode=OH_4_AAC length=38 units=ft
New Line.OH_264922_1_3 phases=1 bus1=DEV_264923_TSF25.1 bus2=DEV_264923_424.1 linecode=OH_4_AAC length=64 units=ft
New Line.OH_264922_1_4 phases=1 bus1=DEV_264923_TSF25.1 bus2=DEV_264923_P2.1 linecode=OH_4_Cu length=139 units=ft
New Line.OH_264922_1_5 phases=1 bus1=DEV_264923_P2.1 bus2=DEV_264923_419.1 linecode=OH_4_AAC length=21 units=ft
New Line.OH_264922_1_6 phases=1 bus1=DEV_264923_P2.1 bus2=DEV_264923_411.1 linecode=OH_1/0_AAC length=24 units=ft
New Line.OH_264922_1_7 phases=1 bus1=DEV_264923_P2.1 bus2=DEV_264923_418.1 linecode=OH_4_AAC length=62 units=ft
New Line.OH_264922_1_8 phases=1 bus1=DEV_264923_P2.1 bus2=DEV_264923_P1.1 linecode=OH_4_Cu length=108 units=ft
New Line.OH_264922_1_9 phases=1 bus1=DEV_264923_P1.1 bus2=DEV_264923_352.1 linecode=OH_1/0_AAC length=32 units=ft
New Line.OH_264922_1_10 phases=1 bus1=DEV_264923_P1.1 bus2=DEV_264923_406.1 linecode=OH_4_AAC length=63 units=ft
New Line.OH_264922_1_11 phases=1 bus1=DEV_264923_TSF25.1 bus2=DEV_264923_P4.1 linecode=OH_4_Cu length=139 units=ft
New Line.OH_264922_1_12 phases=1 bus1=DEV_264923_P4.1 bus2=DEV_264923_439.1 linecode=OH_4_AAC length=31 units=ft
New Line.OH_264922_1_13 phases=1 bus1=DEV_264923_P4.1 bus2=DEV_264923_440.1 linecode=OH_4_AAC length=65 units=ft
New Line.OH_264922_1_14 phases=1 bus1=DEV_264923_P4.1 bus2=DEV_264923_P5.1 linecode=OH_4_Cu length=139 units=ft
New Line.OH_264922_1_15 phases=1 bus1=DEV_264923_P5.1 bus2=DEV_264923_460.1 linecode=OH_1/0_AAC length=57 units=ft
New Line.OH_264922_1_16 phases=1 bus1=DEV_264923_P5.1 bus2=DEV_264923_POLE.1 linecode=OH_1/0_AAC length=82 units=ft
New Line.OH_264922_1_17 phases=1 bus1=DEV_264923_P4.1 bus2=DEV_264923_441.1 linecode=UG_#2_Al length=60 units=ft
New Line.OH_264922_1_18 phases=1 bus1=DEV_264923_POLE.1 bus2=DEV_264923_462.1 linecode=UG_#2_Al length=79 units=ft
New Line.OH_264925_1_1 phases=1 bus1=DEV_264926_TSF37.3 bus2=DEV_264926_1570.3 linecode=OH_4_AAC length=51 units=ft
New Line.OH_264925_1_2 phases=1 bus1=DEV_264926_TSF37.3 bus2=DEV_264926_1571.3 linecode=OH_4_AAC length=21 units=ft
New Line.OH_264925_1_3 phases=1 bus1=DEV_264926_TSF37.3 bus2=DEV_264926_1563.3 linecode=OH_4_AAC length=26 units=ft
New Line.OH_264925_1_4 phases=1 bus1=DEV_264926_TSF37.3 bus2=DEV_264926_T1.3 linecode=OH_1/0_AAC length=57 units=ft
New Line.OH_264925_1_5 phases=1 bus1=DEV_264926_T1.3 bus2=DEV_264926_1564.3 linecode=OH_4_AAC length=63 units=ft
New Line.OH_264925_1_6 phases=1 bus1=DEV_264926_T1.3 bus2=DEV_264926_T2.3 linecode=OH_1/0_AAC length=61 units=ft
New Line.OH_264925_1_7 phases=1 bus1=DEV_264926_T2.3 bus2=DEV_264926_1555.3 linecode=OH_1/0_AAC length=27 units=ft
New Line.OH_264925_1_8 phases=1 bus1=DEV_264926_T2.3 bus2=DEV_264926_P8X.3 linecode=OH_1/0_AAC length=12 units=ft
New Line.OH_264925_1_9 phases=1 bus1=DEV_264926_P8X.3 bus2=DEV_264926_T3.3 linecode=OH_1/0_AAC length=36 units=ft
New Line.OH_264925_1_10 phases=1 bus1=DEV_264926_T3.3 bus2=DEV_264926_1556.3 linecode=OH_4_AAC length=66 units=ft
New Line.OH_264925_1_11 phases=1 bus1=DEV_264926_T3.3 bus2=DEV_264926_T4.3 linecode=OH_1/0_AAC length=10 units=ft
New Line.OH_264925_1_12 phases=1 bus1=DEV_264926_T4.3 bus2=DEV_264926_1550.3 linecode=OH_4_AAC length=47 units=ft
New Line.OH_264925_1_13 phases=1 bus1=DEV_264926_T4.3 bus2=DEV_264926_1549.3 linecode=OH_1/0_AAC length=30 units=ft
New Line.OH_264925_1_14 phases=1 bus1=DEV_264926_T4.3 bus2=DEV_264926_P8.3 linecode=OH_1/0_AAC length=62 units=ft
New Line.OH_264925_1_15 phases=1 bus1=DEV_264926_P8.3 bus2=DEV_264926_T5.3 linecode=OH_1/0_AAC length=46 units=ft
New Line.OH_264925_1_16 phases=1 bus1=DEV_264926_T5.3 bus2=DEV_264926_1544.3 linecode=OH_1/0_AAC length=34 units=ft
New Line.OH_264925_1_17 phases=1 bus1=DEV_264926_T5.3 bus2=DEV_264926_T6.3 linecode=OH_1/0_AAC length=23 units=ft
New Line.OH_264925_1_18 phases=1 bus1=DEV_264926_T6.3 bus2=DEV_264926_1525.3 linecode=OH_4_AAC length=46 units=ft
New Line.OH_264925_1_19 phases=1 bus1=DEV_264926_T6.3 bus2=DEV_264926_P7X.3 linecode=OH_1/0_AAC length=44 units=ft
New Line.OH_264925_1_20 phases=1 bus1=DEV_264926_P7X.3 bus2=DEV_264926_1536.3 linecode=OH_1/0_AAC length=16 units=ft
New Line.OH_264925_1_21 phases=1 bus1=DEV_264926_TSF37.3 bus2=DEV_264926_T7.3 linecode=OH_1/0_AAC length=73 units=ft
New Line.OH_264925_1_22 phases=1 bus1=DEV_264926_T7.3 bus2=DEV_264926_1579.3 linecode=OH_4_AAC length=22 units=ft
New Line.OH_264925_1_23 phases=1 bus1=DEV_264926_T7.3 bus2=DEV_264926_P9X.3 linecode=OH_1/0_AAC length=45 units=ft
New Line.OH_264925_1_24 phases=1 bus1=DEV_264926_P9X.3 bus2=DEV_264926_1578.3 linecode=OH_4_AAC length=60 units=ft
New Line.OH_264925_1_25 phases=1 bus1=DEV_264926_P9X.3 bus2=DEV_264926_0_1578.3 linecode=OH_4_AAC length=60 units=ft
New Line.OH_264925_1_26 phases=1 bus1=DEV_264926_P9X.3 bus2=DEV_264926_1_1578.3 linecode=OH_4_AAC length=60 units=ft
New Line.OH_264925_1_27 phases=1 bus1=DEV_264926_P9X.3 bus2=DEV_264926_2_1578.3 linecode=OH_4_AAC length=60 units=ft
New Line.OH_264925_1_28 phases=1 bus1=DEV_264926_P9X.3 bus2=DEV_264926_3_1578.3 linecode=OH_4_AAC length=60 units=ft
New Line.OH_264928_1_1 phases=1 bus1=DEV_264929_TSF25.1 bus2=DEV_264929_545.1 linecode=OH_4_AAC length=17 units=ft
New Line.OH_264928_1_2 phases=1 bus1=DEV_264929_TSF25.1 bus2=DEV_264929_550.1 linecode=OH_1/0_AAC length=41 units=ft
New Line.OH_264928_1_3 phases=1 bus1=DEV_264929_TSF25.1 bus2=DEV_264929_P6.1 linecode=OH_4_Cu length=112 units=ft
...
